Circuit: * \\wsl.localhost\Ubuntu-22.04\home\miqueasgamero\my_files\transresistance_amplifier\amplifier.asc

Direct Newton iteration failed to find .op point.  (Use ".option noopiter" to skip.)
Starting Gmin stepping
Gmin = 10
vernier = 0.5
vernier = 0.25
vernier = 0.125
Gmin = 5.5165
vernier = 0.0625
vernier = 0.03125
vernier = 0.015625
vernier = 0.0078125
Gmin = 5.49501
vernier = 0.00390625
vernier = 0.00195313
vernier = 0.000976563
vernier = 0.000488281
Gmin = 5.50104
Gmin = 0
Gmin stepping failed

Starting source stepping with srcstepmethod=0
Source Step = 3.0303%
Source Step = 33.3333%
Source Step = 63.6364%
Source Step = 93.9394%
Source stepping succeeded in finding the operating point.


Date: Tue Nov 07 20:11:46 2023
Total elapsed time: 0.107 seconds.

tnom = 27
temp = 27
method = modified trap
totiter = 3790
traniter = 2082
tranpoints = 1042
accept = 1042
rejected = 0
matrix size = 35
fillins = 80
solver = Normal
Matrix Compiler1: 5.99 KB object code size  1.1/0.4/[0.4]
Matrix Compiler2: 4.23 KB object code size  0.3/0.3/[0.2]

