Circuit: * \\wsl.localhost\Ubuntu-22.04\home\miqueasgamero\my_files\transresistance_amplifier\amplifier.asc

Early termination of direct N-R iteration.
Direct Newton iteration failed to find .op point.  (Use ".option noopiter" to skip.)
Starting Gmin stepping
Gmin = 10
vernier = 0.5
vernier = 0.25
vernier = 0.125
Gmin = 5.5165
vernier = 0.0625
vernier = 0.03125
vernier = 0.015625
vernier = 0.0078125
Gmin = 5.49501
vernier = 0.00390625
vernier = 0.00195313
vernier = 0.000976563
vernier = 0.000488281
Gmin = 5.50104
Gmin = 0
Gmin stepping failed

Starting source stepping with srcstepmethod=0
Source Step = 3.0303%
vernier = 0.25
Source Step = 0.520833%
Source Step = 0.994318%
Source Step = 1.4678%
Source Step = 1.94129%
Source Step = 2.41477%
vernier = 0.0234375
Source Step = 3.0303%
Source Step = 3.74053%
Source Step = 4.45076%
Source Step = 5.16098%
Source Step = 5.87121%
vernier = 0.0351563
Source Step = 6.759%
Source Step = 7.82434%
Source Step = 8.88968%
Source Step = 9.95502%
Source Step = 11.0204%
vernier = 0.0527344
Source Step = 12.2988%
Source Step = 13.8968%
Source Step = 15.4948%
Source Step = 17.0928%
Source Step = 18.6908%
vernier = 0.0791016
Source Step = 20.109%
vernier = 0.00494385
Source Step = 20.0828%
Source Step = 20.1203%
Source Step = 20.1577%
Source Step = 20.1952%
Source Step = 20.2326%
vernier = 0.00185394
Source Step = 20.2795%
Source Step = 20.3356%
Source Step = 20.3918%
Source Step = 20.448%
Source Step = 20.5042%
vernier = 0.00278091
Source Step = 20.5716%
Source Step = 20.6559%
Source Step = 20.7401%
Source Step = 20.8244%
Source Step = 20.9087%
vernier = 0.00417137
Source Step = 21.0056%
Source Step = 21.132%
Source Step = 21.2584%
Source Step = 21.3848%
Source Step = 21.5112%
vernier = 0.00625706
Source Step = 21.6503%
Source Step = 21.8399%
Source Step = 22.0295%
Source Step = 22.2191%
Source Step = 22.4087%
vernier = 0.00938559
Source Step = 22.6078%
Source Step = 22.8922%
Source Step = 23.1766%
Source Step = 23.461%
Source Step = 23.7454%
Source Step = 24.0298%
vernier = 0.0140784
Source Step = 24.4565%
Source Step = 24.8831%
Source Step = 25.3097%
Source Step = 25.7363%
Source Step = 26.1629%
vernier = 0.0211176
Source Step = 26.7815%
Source Step = 27.4214%
Source Step = 28.0614%
Source Step = 28.7013%
Source Step = 29.3412%
vernier = 0.0316764
Source Step = 30.2371%
Source Step = 31.197%
Source Step = 32.1569%
Source Step = 33.1168%
Source Step = 34.0767%
vernier = 0.0475145
Source Step = 35.3725%
Source Step = 36.8124%
Source Step = 38.2522%
Source Step = 39.692%
Source Step = 41.1319%
vernier = 0.0712718
Source Step = 43.0036%
Source Step = 45.1634%
Source Step = 47.3232%
Source Step = 49.4829%
Source Step = 51.6427%
vernier = 0.106908
Source Step = 54.3423%
Source Step = 57.582%
Source Step = 60.8216%
Source Step = 64.0612%
Source Step = 67.3009%
vernier = 0.160362
Source Step = 71.1884%
Source Step = 76.0478%
Source Step = 80.9073%
Source Step = 85.7667%
Source Step = 90.6262%
vernier = 0.240542
Source Step = 96.2145%
Source Step = 100%
Source stepping succeeded in finding the operating point.


Date: Thu Nov 23 15:48:28 2023
Total elapsed time: 3.779 seconds.

tnom = 27
temp = 27
method = modified trap
totiter = 8694
traniter = 3264
tranpoints = 1502
accept = 1369
rejected = 133
matrix size = 234
fillins = 1049
solver = Normal
Thread vector: 29.9/18.1[4] 12.8/8.9[4] 14.2/8.6[4] 1.8/2.8[1]  2592/500
Matrix Compiler1: 111.58 KB object code size  33.7/13.5/[10.3]
Matrix Compiler2: 39.17 KB object code size  6.3/6.6/[4.5]

