<<<<<<< HEAD
Circuit: * C:\Users\vaale\OneDrive\Escritorio\UNIVERSIDAD\2023\ADCA II\Proyecto\transresistance_amplifier\amplifier_new.asc

=======
Circuit: * \\wsl.localhost\Ubuntu-22.04\home\miqueasgamero\my_files\transresistance_amplifier\amplifier_new.asc

WARNING: Node NC_01 is floating.

WARNING: Less than two connections to node NC_01.  This node is used by CF.
>>>>>>> 27155dc5e54f79c509cfbbe65fec6fdc14b35a5a
Early termination of direct N-R iteration.
Direct Newton iteration failed to find .op point.  (Use ".option noopiter" to skip.)
Starting Gmin stepping
Gmin = 10
vernier = 0.5
vernier = 0.25
vernier = 0.125
<<<<<<< HEAD
Gmin = 5.5165
=======
Gmin = 5.49741
>>>>>>> 27155dc5e54f79c509cfbbe65fec6fdc14b35a5a
vernier = 0.0625
vernier = 0.03125
vernier = 0.015625
vernier = 0.0078125
<<<<<<< HEAD
Gmin = 5.49501
vernier = 0.00390625
vernier = 0.00195312
vernier = 0.000976562
=======
Gmin = 5.51716
vernier = 0.00390625
vernier = 0.00195313
vernier = 0.000976563
>>>>>>> 27155dc5e54f79c509cfbbe65fec6fdc14b35a5a
vernier = 0.000488281
Gmin = 5.50104
Gmin = 0
Gmin stepping failed

Starting source stepping with srcstepmethod=0
Source Step = 3.0303%
Source Step = 33.3333%
Source Step = 63.6364%
Source Step = 93.9394%
Source stepping succeeded in finding the operating point.


<<<<<<< HEAD
Date: Sat Dec  9 18:32:27 2023
Total elapsed time: 0.699 seconds.
=======
Date: Sat Dec 09 18:24:51 2023
Total elapsed time: 1.436 seconds.
>>>>>>> 27155dc5e54f79c509cfbbe65fec6fdc14b35a5a

tnom = 27
temp = 27
method = modified trap
<<<<<<< HEAD
totiter = 4485
traniter = 2793
tranpoints = 1364
accept = 1288
rejected = 76
matrix size = 75
fillins = 542
solver = Normal
Avg thread counts: 1.3/1.7/1.7/1.3
Matrix Compiler1: 58.78 KB object code size  20.7/11.3/[8.7]
Matrix Compiler2: 15.95 KB object code size  5.0/4.7/[2.4]
=======
totiter = 12658
traniter = 10940
tranpoints = 5443
accept = 4151
rejected = 1292
matrix size = 146
fillins = 2100
solver = Normal
Thread vector: 9.0/5.0[4] 2.2/2.4[1] 3.4/2.2[4] 0.9/1.9[1]  2592/500
Matrix Compiler1: 441.58 KB object code size  48.0/18.1/[14.1]
Matrix Compiler2: 49.15 KB object code size  6.8/3.7/[2.5]
>>>>>>> 27155dc5e54f79c509cfbbe65fec6fdc14b35a5a

