Circuit: * C:\Users\vaale\OneDrive\Escritorio\UNIVERSIDAD\2023\ADCA II\Proyecto\transresistance_amplifier\amplifier.asc

WARNING: Less than two connections to node nc_01.  This node is used by rf1.
WARNING: Less than two connections to node nc_02.  This node is used by ra1.
Early termination of direct N-R iteration.
Direct Newton iteration failed to find .op point.  (Use ".option noopiter" to skip.)
Starting Gmin stepping
Gmin = 10
vernier = 0.5
vernier = 0.25
vernier = 0.125
Gmin = 5.5165
vernier = 0.0625
vernier = 0.03125
vernier = 0.015625
vernier = 0.0078125
Gmin = 5.49501
vernier = 0.00390625
vernier = 0.00195312
vernier = 0.000976562
vernier = 0.000488281
Gmin = 5.50104
Gmin = 0
Gmin stepping failed

Starting source stepping with srcstepmethod=0
Source Step = 3.0303%
Source Step = 33.3333%
Source Step = 63.6364%
Source Step = 93.9394%
Source stepping succeeded in finding the operating point.

Heightened Def Con from 0.009 to 0.009

Date: Sat Dec  9 17:43:04 2023
Total elapsed time: 2.231 seconds.

tnom = 27
temp = 27
method = modified trap
totiter = 15683
traniter = 13975
tranpoints = 6781
accept = 5172
rejected = 1610
matrix size = 124
fillins = 896
solver = Normal
Avg thread counts: 1.1/1.1/1.1/1.1
Matrix Compiler1: 111.90 KB object code size  42.7/24.4/[17.7]
Matrix Compiler2: 26.42 KB object code size  10.0/7.0/[4.0]

