Circuit: * \\wsl.localhost\Ubuntu-22.04\home\miqueasgamero\my_files\transresistance_amplifier\Amplificacor_rta_freq.asc

Direct Newton iteration for .op point succeeded.

Date: Sat Nov 11 19:00:21 2023
Total elapsed time: 0.086 seconds.

tnom = 27
temp = 27
method = trap
totiter = 5
traniter = 0
tranpoints = 0
accept = 0
rejected = 0
matrix size = 275
fillins = 291
solver = Normal
Matrix Compiler1:    1749 opcodes
Matrix Compiler2: 28.23 KB object code size
