Circuit: * \\wsl.localhost\Ubuntu-22.04\home\miqueasgamero\my_files\transresistance_amplifier\amplifier.asc

Early termination of direct N-R iteration.
Direct Newton iteration failed to find .op point.  (Use ".option noopiter" to skip.)
Starting Gmin stepping
Gmin = 10
vernier = 0.5
vernier = 0.25
vernier = 0.125
Gmin = 5.5165
vernier = 0.0625
vernier = 0.03125
vernier = 0.015625
vernier = 0.0078125
Gmin = 5.49501
vernier = 0.00390625
vernier = 0.00195313
vernier = 0.000976563
vernier = 0.000488281
Gmin = 5.50104
Gmin = 0
Gmin stepping failed

Starting source stepping with srcstepmethod=0
Source Step = 3.0303%
vernier = 0.25
Source Step = 0.520833%
Source Step = 0.994318%
Source Step = 1.4678%
Source Step = 1.94129%
Source Step = 2.41477%
vernier = 0.0234375
Source Step = 3.0303%
Source Step = 3.74053%
Source Step = 4.45076%
Source Step = 5.16098%
Source Step = 5.87121%
vernier = 0.0351563
Source Step = 6.759%
Source Step = 7.82434%
Source Step = 8.88968%
Source Step = 9.95502%
Source Step = 10.1082%
Source Step = 10.1747%
Source Step = 10.2413%
Source Step = 10.3079%
Source Step = 10.3745%
Source Step = 10.4411%
vernier = 0.0032959
Source Step = 10.541%
Source Step = 10.6408%
Starting source stepping with srcstepmethod=1
Source Step = 3.0303%
vernier = 0.25
Source stepping failed

Pseudo Transient succeeded in finding the operating point at 27.8183 s.

Date: Sat Nov 25 17:21:29 2023
Total elapsed time: 2.159 seconds.

tnom = 27
temp = 27
method = modified trap
totiter = 11570
traniter = 3049
tranpoints = 1438
accept = 1314
rejected = 155
matrix size = 233
fillins = 863
solver = Normal
Thread vector: 21.7/8.2[4] 4.8/2.8[4] 6.5/3.4[4] 0.8/1.2[1]  2592/500
Matrix Compiler1: 91.25 KB object code size  14.1/4.3/[4.1]
Matrix Compiler2: 35.24 KB object code size  2.9/3.4/[1.5]

