Circuit: * \\wsl.localhost\Ubuntu-22.04\home\miqueasgamero\my_files\transresistance_amplifier\Amplificacor_rta_freq.asc

Direct Newton iteration for .op point succeeded.

Date: Tue Nov 21 18:37:30 2023
Total elapsed time: 0.150 seconds.

tnom = 27
temp = 27
method = trap
totiter = 5
traniter = 0
tranpoints = 0
accept = 0
rejected = 0
matrix size = 546
fillins = 603
solver = Normal
Matrix Compiler1:    3552 opcodes
Matrix Compiler2: 56.63 KB object code size
