Circuit: * C:\Users\vaale\OneDrive\Escritorio\UNIVERSIDAD\2023\ADCA II\Proyecto\transresistance_amplifier\amplifier_new.asc

Early termination of direct N-R iteration.
Direct Newton iteration failed to find .op point.  (Use ".option noopiter" to skip.)
Starting Gmin stepping
Gmin = 10
vernier = 0.5
vernier = 0.25
vernier = 0.125
Gmin = 5.5165
vernier = 0.0625
vernier = 0.03125
vernier = 0.015625
vernier = 0.0078125
Gmin = 5.49501
vernier = 0.00390625
vernier = 0.00195312
vernier = 0.000976562
vernier = 0.000488281
Gmin = 5.50104
Gmin = 0
Gmin stepping failed

Starting source stepping with srcstepmethod=0
Source Step = 3.0303%
Source Step = 33.3333%
Source Step = 63.6364%
Source Step = 93.9394%
Source stepping succeeded in finding the operating point.


Date: Sat Dec  9 18:32:27 2023
Total elapsed time: 0.699 seconds.

tnom = 27
temp = 27
method = modified trap
totiter = 4485
traniter = 2793
tranpoints = 1364
accept = 1288
rejected = 76
matrix size = 75
fillins = 542
solver = Normal
Avg thread counts: 1.3/1.7/1.7/1.3
Matrix Compiler1: 58.78 KB object code size  20.7/11.3/[8.7]
Matrix Compiler2: 15.95 KB object code size  5.0/4.7/[2.4]

