Circuit: * \\wsl.localhost\Ubuntu-22.04\home\miqueasgamero\my_files\transresistance_amplifier\Amplificacor_rta_freq.asc

Direct Newton iteration for .op point succeeded.
.step c=1e-009
.step c=1e-008
.step c=1e-007

Date: Sat Dec 09 17:37:11 2023
Total elapsed time: 0.224 seconds.

tnom = 27
temp = 27
method = trap
totiter = 24
traniter = 0
tranpoints = 0
accept = 0
rejected = 0
matrix size = 82
fillins = 133
solver = Normal
Matrix Compiler1:     605 opcodes
Matrix Compiler2: 9.05 KB object code size
