Circuit: * C:\Users\vaale\OneDrive\Escritorio\UNIVERSIDAD\2023\ADCA II\Proyecto\transresistance_amplifier\Amplificacor_rta_freq.asc

Direct Newton iteration for .op point succeeded.

Date: Thu Nov 23 18:44:53 2023
Total elapsed time: 0.276 seconds.

tnom = 27
temp = 27
method = trap
totiter = 5
traniter = 0
tranpoints = 0
accept = 0
rejected = 0
matrix size = 547
fillins = 677
solver = Normal
Avg thread counts: 12.0/0.0/12.0/1.8
Matrix Compiler1:    3664 opcodes
Matrix Compiler2: 58.04 KB object code size
