Circuit: * C:\Users\vaale\OneDrive\Escritorio\UNIVERSIDAD\2023\ADCA II\Proyecto\transresistance_amplifier\amplifier.asc

Early termination of direct N-R iteration.
Direct Newton iteration failed to find .op point.  (Use ".option noopiter" to skip.)
Starting Gmin stepping
Gmin = 10
vernier = 0.5
vernier = 0.25
vernier = 0.125
Gmin = 5.5165
vernier = 0.0625
vernier = 0.03125
vernier = 0.015625
vernier = 0.0078125
Gmin = 5.49501
vernier = 0.00390625
vernier = 0.00195312
vernier = 0.000976562
vernier = 0.000488281
Gmin = 5.50104
Gmin = 0
Gmin stepping failed

Starting source stepping with srcstepmethod=0
Source Step = 3.0303%
vernier = 0.25
Source Step = 0.520833%
Source Step = 0.994318%
Source Step = 1.4678%
Source Step = 1.94129%
Source Step = 2.41477%
vernier = 0.0234375
Source Step = 3.0303%
Source Step = 3.74053%
Source Step = 4.45076%
Source Step = 5.16098%
Source Step = 5.87121%
vernier = 0.0351562
Source Step = 6.759%
Source Step = 7.82434%
Source Step = 8.88968%
Source Step = 9.95502%
Source Step = 10.1082%
Source Step = 10.1747%
Source Step = 10.2413%
Source Step = 10.3079%
Source Step = 10.3745%
Starting source stepping with srcstepmethod=1
Source Step = 3.0303%
vernier = 0.25
Source stepping failed

Pseudo Transient succeeded in finding the operating point at 27.8179 s.

Date: Thu Nov 23 18:21:39 2023
Total elapsed time: 5.423 seconds.

tnom = 27
temp = 27
method = modified trap
totiter = 11548
traniter = 3056
tranpoints = 1440
accept = 1312
rejected = 159
matrix size = 233
fillins = 988
solver = Normal
Avg thread counts: 1.3/1.7/1.6/1.3
Matrix Compiler1: 94.03 KB object code size  29.8/13.3/[9.1]
Matrix Compiler2: 37.70 KB object code size  11.2/10.2/[6.7]

