Circuit: * C:\Users\vaale\OneDrive\Escritorio\UNIVERSIDAD\2023\ADCA II\Proyecto\transresistance_amplifier\Buffer inversor.asc

Direct Newton iteration for .op point succeeded.

Date: Thu Nov 23 13:44:34 2023
Total elapsed time: 0.171 seconds.

tnom = 27
temp = 27
method = modified trap
totiter = 2106
traniter = 2088
tranpoints = 1045
accept = 1045
rejected = 0
matrix size = 29
fillins = 32
solver = Normal
Avg thread counts: 1.5/1.9/1.9/1.5
Matrix Compiler1: 2.84 KB object code size  2.6/3.0/[1.1]
Matrix Compiler2: 2.88 KB object code size  1.3/2.1/[1.1]

