Circuit: * C:\Users\vaale\OneDrive\Escritorio\UNIVERSIDAD\2023\ADCA II\Proyecto\transresistance_amplifier\Draft1.asc

Direct Newton iteration failed to find .op point.  (Use ".option noopiter" to skip.)
Starting Gmin stepping
Gmin = 10
vernier = 0.5
vernier = 0.25
vernier = 0.125
Gmin = 5.5165
vernier = 0.0625
vernier = 0.03125
vernier = 0.015625
vernier = 0.0078125
Gmin = 5.49501
vernier = 0.00390625
vernier = 0.00195312
vernier = 0.000976562
vernier = 0.000488281
Gmin = 5.50104
Gmin = 0
Gmin stepping failed

Starting source stepping with srcstepmethod=0
Source Step = 3.0303%
Source Step = 33.3333%
Source Step = 63.6364%
Source Step = 93.9394%
Source stepping succeeded in finding the operating point.


Date: Tue Nov  7 20:11:16 2023
Total elapsed time: 0.330 seconds.

tnom = 27
temp = 27
method = modified trap
totiter = 3804
traniter = 2082
tranpoints = 1042
accept = 1042
rejected = 0
matrix size = 30
fillins = 76
solver = Normal
Avg thread counts: 1.5/1.9/1.9/1.5
Matrix Compiler1: 5.58 KB object code size  4.9/1.9/[1.4]
Matrix Compiler2: 3.80 KB object code size  1.6/1.5/[0.9]

