Circuit: * C:\Users\vaale\OneDrive\Escritorio\UNIVERSIDAD\2023\ADCA II\Proyecto\transresistance_amplifier\Draft1.asc

Direct Newton iteration for .op point succeeded.

Date: Tue Nov 21 17:38:18 2023
Total elapsed time: 0.152 seconds.

tnom = 27
temp = 27
method = modified trap
totiter = 2108
traniter = 2090
tranpoints = 1046
accept = 1045
rejected = 1
matrix size = 29
fillins = 32
solver = Normal
Avg thread counts: 1.5/1.9/1.9/1.5
Matrix Compiler1: 2.84 KB object code size  2.7/1.7/[1.0]
Matrix Compiler2: 2.88 KB object code size  1.4/2.1/[1.0]

