Circuit: * C:\Users\vaale\OneDrive\Escritorio\UNIVERSIDAD\2023\ADCA II\Proyecto\transresistance_amplifier\Draft1.asc

WARNING: Less than two connections to node vout.  This node is used by v:u1:c.
Direct Newton iteration failed to find .op point.  (Use ".option noopiter" to skip.)
Starting Gmin stepping
Gmin = 10
Gmin = 1.07374
Gmin = 0.115292
Gmin = 0.0123794
Gmin = 0.00132923
Gmin = 0.000142725
Gmin = 1.5325e-05
Gmin = 1.6455e-06
Gmin = 1.76685e-07
Gmin = 1.89714e-08
Gmin = 2.03704e-09
Gmin = 2.18725e-10
Gmin = 2.34854e-11
Gmin = 2.52173e-12
Gmin = 2.70769e-13
Gmin = 0
Gmin stepping succeeded in finding the operating point.


Date: Sat Nov 11 17:39:28 2023
Total elapsed time: 0.366 seconds.

tnom = 27
temp = 27
method = modified trap
totiter = 2745
traniter = 2082
tranpoints = 1042
accept = 1042
rejected = 0
matrix size = 48
fillins = 71
solver = Normal
Avg thread counts: 1.5/1.9/1.9/1.5
Matrix Compiler1: 7.97 KB object code size  7.7/3.4/[2.1]
Matrix Compiler2: 5.87 KB object code size  2.3/2.8/[1.2]

