Circuit: * C:\Users\vaale\OneDrive\Escritorio\UNIVERSIDAD\2023\ADCA II\Proyecto\transresistance_amplifier\Reguladores_78_79_RF.asc

WARNING: Less than two connections to node vout.  This node is used by v:u1:c.
Direct Newton iteration failed to find .op point.  (Use ".option noopiter" to skip.)
Starting Gmin stepping
Gmin = 10
Gmin = 1.07374
Gmin = 0.115292
Gmin = 0.0123794
Gmin = 0.00132923
Gmin = 0.000142725
Gmin = 1.5325e-05
Gmin = 1.6455e-06
Gmin = 1.76685e-07
Gmin = 1.89714e-08
Gmin = 2.03704e-09
Gmin = 2.18725e-10
Gmin = 2.34854e-11
Gmin = 2.52173e-12
Gmin = 2.70769e-13
Gmin = 0
Gmin stepping succeeded in finding the operating point.


Date: Sat Nov 11 19:22:17 2023
Total elapsed time: 0.250 seconds.

tnom = 27
temp = 27
method = trap
totiter = 461
traniter = 0
tranpoints = 0
accept = 0
rejected = 0
matrix size = 50
fillins = 86
solver = Normal
Avg thread counts: 3.1/0.0/7.3/1.7
Matrix Compiler1:     628 opcodes
Matrix Compiler2: 6.23 KB object code size  1.9/1.8/[1.1]

