Circuit: * C:\Users\vaale\OneDrive\Escritorio\UNIVERSIDAD\2023\ADCA II\Proyecto\transresistance_amplifier\Reguladores_78_79_RF.asc

Direct Newton iteration failed to find .op point.  (Use ".option noopiter" to skip.)
Starting Gmin stepping
Gmin = 10
Gmin = 1.07374
Gmin = 0.115292
Gmin = 0.0123794
Gmin = 0.00132923
Gmin = 0.000142725
vernier = 0.5
Gmin = 2.9562e-05
vernier = 0.666667
vernier = 0.888888
Gmin = 6.73668e-06
vernier = 1
Gmin = 8.09366e-07
Gmin = 8.6905e-08
Gmin = 9.33136e-09
Gmin = 1.00195e-09
Gmin = 1.07583e-10
Gmin = 1.15517e-11
Gmin = 1.24035e-12
Gmin = 1.33182e-13
Gmin = 0
Gmin stepping succeeded in finding the operating point.


Date: Thu Nov 23 13:30:05 2023
Total elapsed time: 0.182 seconds.

tnom = 27
temp = 27
method = trap
totiter = 887
traniter = 0
tranpoints = 0
accept = 0
rejected = 0
matrix size = 50
fillins = 88
solver = Normal
Avg thread counts: 2.1/0.0/5.8/1.5
Matrix Compiler1:     632 opcodes
Matrix Compiler2: 6.29 KB object code size  1.8/1.8/[1.1]

