Circuit: * \\wsl.localhost\Ubuntu-22.04\home\miqueasgamero\my_files\transresistance_amplifier\Regulador_tension_negativa.asc

Direct Newton iteration for .op point succeeded.

Date: Thu Nov 09 11:50:39 2023
Total elapsed time: 0.213 seconds.

tnom = 27
temp = 27
method = modified trap
totiter = 2097
traniter = 2082
tranpoints = 1042
accept = 1042
rejected = 0
matrix size = 14
fillins = 6
solver = Normal
Matrix Compiler1: 1.29 KB object code size  0.7/0.4/[0.4]
Matrix Compiler2: off  [0.3]/0.5/0.4

