Circuit: * C:\Users\vaale\OneDrive\Escritorio\UNIVERSIDAD\2023\ADCA II\Proyecto\transresistance_amplifier\Reguladores_78_79.asc

WARNING: Less than two connections to node vout.  This node is used by v:u1:c.
Direct Newton iteration failed to find .op point.  (Use ".option noopiter" to skip.)
Starting Gmin stepping
Gmin = 10
Gmin = 1.07374
Gmin = 0.115292
Gmin = 0.0123794
Gmin = 0.00132923
Gmin = 0.000142725
vernier = 0.5
Gmin = 2.9562e-05
vernier = 0.666667
vernier = 0.888888
Gmin = 6.73668e-06
vernier = 1
Gmin = 8.09366e-07
Gmin = 8.6905e-08
Gmin = 9.33136e-09
Gmin = 1.00195e-09
Gmin = 1.07583e-10
Gmin = 1.15517e-11
Gmin = 1.24035e-12
Gmin = 1.33182e-13
Gmin = 0
Gmin stepping succeeded in finding the operating point.


Date: Tue Nov 21 17:12:34 2023
Total elapsed time: 0.503 seconds.

tnom = 27
temp = 27
method = modified trap
totiter = 3039
traniter = 2082
tranpoints = 1042
accept = 1042
rejected = 0
matrix size = 48
fillins = 72
solver = Normal
Avg thread counts: 1.5/1.9/1.9/1.5
Matrix Compiler1: 8.08 KB object code size  5.2/3.0/[1.7]
Matrix Compiler2: 5.88 KB object code size  2.0/2.0/[1.1]

